ProjectFiles/K1/DSSfiles/K1_VLN_elem.Txt

NODE-GROUND VOLTAGES BY CIRCUIT ELEMENT

Power Delivery Elements

Bus             (node ref)  Phase    Magnitude, kV (pu)    Angle

ELEMENT = "Vsource.SOURCE"
SOURCEBUS        (  1)    1           2.5217 (    1.05) /_    0.0
SOURCEBUS        (  2)    2           2.5216 (    1.05) /_ -120.0
SOURCEBUS        (  3)    3           2.5216 (    1.05) /_  120.0
------------
SOURCEBUS        (  0)    1                0 (       0) /_    0.0
SOURCEBUS        (  0)    2                0 (       0) /_    0.0
SOURCEBUS        (  0)    3                0 (       0) /_    0.0

ELEMENT = "Line.BB_50011133"
DEV_50011134     (  4)    1           2.4525 (   1.021) /_   -0.9
------------
DEV_50011135     (  5)    1           2.4525 (   1.021) /_   -0.9

ELEMENT = "Line.BB_50015855"
DEV_50015856     (  6)    1           2.4956 (   1.039) /_   -0.2
------------
DEV_50015857     (  7)    1           2.4956 (   1.039) /_   -0.2

ELEMENT = "Line.BB_50026560"
DEV_50026561     (  8)    1            2.454 (   1.022) /_   -0.9
------------
DEV_50026562     (  9)    1            2.454 (   1.022) /_   -0.9

ELEMENT = "Line.BB_50026578"
DEV_50026579     ( 10)    1           2.3447 (  0.9762) /_  116.9
------------
DEV_50026580     ( 11)    1           2.3447 (  0.9762) /_  116.9

ELEMENT = "Line.BB_50149"
DEV_50172        ( 12)    1           2.3101 (  0.9618) /_ -121.8
------------
DEV_50171        ( 13)    1           2.3101 (  0.9618) /_ -121.8

ELEMENT = "Line.BB_50167"
DEV_50166        ( 14)    1           2.3095 (  0.9616) /_ -121.8
------------
DEV_50165        ( 15)    1           2.3095 (  0.9616) /_ -121.8

ELEMENT = "Line.BB_50212"
DEV_50210        ( 16)    1           2.4429 (   1.017) /_   -1.2
------------
DEV_50213        ( 17)    1           2.4429 (   1.017) /_   -1.2

ELEMENT = "Line.BB_50263"
DEV_50262        ( 18)    1           2.3424 (  0.9753) /_  116.8
------------
DEV_50261        ( 19)    1           2.3424 (  0.9753) /_  116.8

ELEMENT = "Line.BB_50266"
DEV_50265        ( 20)    1           2.3424 (  0.9753) /_  116.8
------------
DEV_50264        ( 21)    1           2.3424 (  0.9753) /_  116.8

ELEMENT = "Line.BB_51048013"
DEV_51048014     ( 22)    1            2.445 (   1.018) /_ -120.7
------------
DEV_51048015     ( 23)    1            2.445 (   1.018) /_ -120.7

ELEMENT = "Line.BB_51066669"
DEV_51066670     ( 24)    1           2.4183 (   1.007) /_ -120.8
------------
DEV_51066671     ( 25)    1           2.4183 (   1.007) /_ -120.8

ELEMENT = "Line.BB_51066701"
DEV_51066702     ( 26)    1           2.4426 (   1.017) /_   -1.2
------------
DEV_51066703     ( 27)    1           2.4426 (   1.017) /_   -1.2

ELEMENT = "Line.BB_51071429"
DEV_51071430     ( 28)    1           2.3653 (  0.9848) /_ -121.2
------------
DEV_51071431     ( 29)    1           2.3653 (  0.9848) /_ -121.2

ELEMENT = "Line.BB_51091905"
DEV_51091906     ( 30)    1           2.4155 (   1.006) /_ -120.9
------------
DEV_51091907     ( 31)    1           2.4155 (   1.006) /_ -120.9

ELEMENT = "Line.BB_51121405"
DEV_51121406     ( 32)    1           2.4443 (   1.018) /_   -1.3
------------
DEV_51121407     ( 33)    1           2.4443 (   1.018) /_   -1.3

ELEMENT = "Line.BB_63397"
DEV_63398        ( 34)    1           2.3575 (  0.9816) /_  117.0
------------
DEV_63399        ( 35)    1           2.3575 (  0.9816) /_  117.0

ELEMENT = "Line.BB_63401"
DEV_63403        ( 36)    1           2.3578 (  0.9817) /_  117.0
------------
DEV_63402        ( 37)    1           2.3578 (  0.9817) /_  117.0

ELEMENT = "Line.BB_63544"
DEV_63673        ( 38)    1           2.3368 (   0.973) /_ -121.5
------------
DEV_63545        ( 39)    1           2.3368 (   0.973) /_ -121.5

ELEMENT = "Line.BB_63825"
DEV_63826        ( 40)    1           2.3585 (   0.982) /_  117.1
------------
DEV_63827        ( 41)    1           2.3585 (   0.982) /_  117.1

ELEMENT = "Line.BB_64040"
DEV_64039        ( 42)    1           2.4444 (   1.018) /_   -1.3
------------
DEV_63854        ( 43)    1           2.4444 (   1.018) /_   -1.3

ELEMENT = "Line.BB_64049"
DEV_64297        ( 44)    1           2.3362 (  0.9727) /_  116.6
------------
DEV_64050        ( 45)    1           2.3362 (  0.9727) /_  116.6

ELEMENT = "Line.BB_64055"
DEV_64299        ( 46)    1           2.3355 (  0.9724) /_  116.6
------------
DEV_64054        ( 47)    1           2.3355 (  0.9724) /_  116.6

ELEMENT = "Line.BB_64059"
DEV_64060        ( 48)    1           2.3355 (  0.9724) /_  116.6
------------
DEV_64058        ( 49)    1           2.3355 (  0.9724) /_  116.6

ELEMENT = "Line.BB_64159"
DEV_64158        ( 50)    1           2.4444 (   1.018) /_   -1.3
------------
DEV_64185        ( 51)    1           2.4444 (   1.018) /_   -1.3

ELEMENT = "Line.BB_64172"
DEV_50016592     ( 52)    1            2.444 (   1.018) /_   -1.3
------------
DEV_50016591     ( 53)    1            2.444 (   1.018) /_   -1.3

ELEMENT = "Line.BB_64247"
DEV_64244        ( 54)    1           2.4396 (   1.016) /_   -1.3
------------
DEV_64248        ( 55)    1           2.4396 (   1.016) /_   -1.3

ELEMENT = "Line.BB_64254"
DEV_64252        ( 56)    1           2.4396 (   1.016) /_   -1.3
------------
DEV_63855        ( 57)    1           2.4396 (   1.016) /_   -1.3

ELEMENT = "Line.BB_64279"
DEV_64224        ( 58)    1           2.4426 (   1.017) /_   -1.3
------------
DEV_64226        ( 59)    1           2.4426 (   1.017) /_   -1.3

ELEMENT = "Line.BB_64280"
DEV_64281        ( 60)    1           2.4423 (   1.017) /_   -1.3
------------
DEV_64277        ( 61)    1           2.4423 (   1.017) /_   -1.3

ELEMENT = "Line.BB_64322"
DEV_64144        ( 62)    1           2.4435 (   1.017) /_   -1.3
------------
DEV_64186        ( 63)    1           2.4435 (   1.017) /_   -1.3

ELEMENT = "Line.BB_64469"
DEV_64472        ( 64)    1           2.4068 (   1.002) /_  117.8
------------
DEV_64473        ( 65)    1           2.4068 (   1.002) /_  117.8

ELEMENT = "Line.BB_64478"
DEV_64480        ( 66)    1           2.4075 (   1.002) /_  117.8
------------
DEV_64479        ( 67)    1           2.4075 (   1.002) /_  117.8

ELEMENT = "Line.BB_64575"
DEV_64577        ( 68)    1           2.3941 (  0.9968) /_  117.5
------------
DEV_64576        ( 69)    1           2.3941 (  0.9968) /_  117.5

ELEMENT = "Line.BB_64599"
DEV_64598        ( 70)    1            2.487 (   1.035) /_   -0.6
DEV_64598        ( 71)    2           2.3948 (  0.9971) /_ -120.9
DEV_64598        ( 72)    3           2.4042 (   1.001) /_  117.7
------------
DEV_64601        ( 73)    1            2.487 (   1.035) /_   -0.6
DEV_64601        ( 74)    2           2.3948 (  0.9971) /_ -120.9
DEV_64601        ( 75)    3           2.4042 (   1.001) /_  117.7

ELEMENT = "Line.BB_64630"
DEV_64623        ( 76)    1           2.3659 (  0.9851) /_ -121.2
------------
DEV_64622        ( 77)    1           2.3659 (  0.9851) /_ -121.2

ELEMENT = "Line.BB_64821"
DEV_64823        ( 78)    1           2.4869 (   1.035) /_   -0.3
------------
DEV_64822        ( 79)    1           2.4869 (   1.035) /_   -0.3

ELEMENT = "Line.BB_64829"
DEV_51266982     ( 80)    1            2.424 (   1.009) /_ -120.8
------------
DEV_51266979     ( 81)    1            2.424 (   1.009) /_ -120.8

ELEMENT = "Line.BB_64852"
DEV_64854        ( 82)    1           2.4113 (   1.004) /_ -121.0
------------
DEV_64853        ( 83)    1           2.4113 (   1.004) /_ -121.0

ELEMENT = "Line.BB_64883"
DEV_64884        ( 84)    1           2.4823 (   1.034) /_   -0.3
DEV_64884        ( 85)    2           2.4278 (   1.011) /_ -120.9
DEV_64884        ( 86)    3           2.4468 (   1.019) /_  118.5
------------
PRI_64883        ( 87)    1           2.4823 (   1.034) /_   -0.3
PRI_64883        ( 88)    2           2.4278 (   1.011) /_ -120.9
PRI_64883        ( 89)    3           2.4468 (   1.019) /_  118.5

ELEMENT = "Line.BB_65081"
DEV_65232        ( 90)    1           2.4823 (   1.034) /_   -0.4
------------
DEV_65082        ( 91)    1           2.4823 (   1.034) /_   -0.4

ELEMENT = "Line.BB_65118"
DEV_65128        ( 92)    1             2.48 (   1.033) /_   -0.5
------------
DEV_65129        ( 93)    1             2.48 (   1.033) /_   -0.5

ELEMENT = "Line.BB_65225"
DEV_64817        ( 94)    1             2.48 (   1.033) /_   -0.5
------------
DEV_64816        ( 95)    1             2.48 (   1.033) /_   -0.5

ELEMENT = "Line.BB_65226"
DEV_65052        ( 96)    1           2.4009 (  0.9996) /_ -121.0
------------
DEV_64814        ( 97)    1           2.4009 (  0.9996) /_ -121.0

ELEMENT = "Line.BB_65227"
DEV_64818        ( 98)    1           2.4797 (   1.032) /_   -0.4
------------
DEV_64819        ( 99)    1           2.4797 (   1.032) /_   -0.4

ELEMENT = "Line.BB_65299"
DEV_51227346     (100)    1           2.4167 (   1.006) /_ -120.9
------------
DEV_51227341     (101)    1           2.4167 (   1.006) /_ -120.9

ELEMENT = "Line.BB_65301"
DEV_65079        (102)    1           2.4825 (   1.034) /_   -0.4
------------
DEV_65256        (103)    1           2.4825 (   1.034) /_   -0.4

ELEMENT = "Line.BB_65302"
DEV_65240        (104)    1           2.4829 (   1.034) /_   -0.4
------------
DEV_65047        (105)    1           2.4829 (   1.034) /_   -0.4

ELEMENT = "Line.BB_65303"
DEV_65252        (106)    1           2.4139 (   1.005) /_ -121.0
------------
DEV_65251        (107)    1           2.4139 (   1.005) /_ -121.0

ELEMENT = "Line.BB_65317"
DEV_65229        (108)    1           2.4929 (   1.038) /_  119.4
------------
DEV_65158        (109)    1           2.4929 (   1.038) /_  119.4

ELEMENT = "Line.BB_65318"
DEV_64834        (110)    1           2.4929 (   1.038) /_  119.4
------------
DEV_64835        (111)    1           2.4929 (   1.038) /_  119.4

ELEMENT = "Line.BB_65321"
DEV_65228        (112)    1           2.4931 (   1.038) /_  119.4
------------
DEV_65160        (113)    1           2.4931 (   1.038) /_  119.4

ELEMENT = "Line.BB_65341"
DEV_65336        (114)    1           2.4337 (   1.013) /_  118.3
------------
DEV_65335        (115)    1           2.4337 (   1.013) /_  118.3

ELEMENT = "Line.DEV_64244_64295"
DEV_64244        ( 54)    1           2.4396 (   1.016) /_   -1.3
------------
DEV_64295        (116)    1           2.4396 (   1.016) /_   -1.3

ELEMENT = "Line.DEV_64598_64610"
DEV_64598        ( 70)    1            2.487 (   1.035) /_   -0.6
DEV_64598        ( 71)    2           2.3948 (  0.9971) /_ -120.9
DEV_64598        ( 72)    3           2.4042 (   1.001) /_  117.7
------------
DEV_64610        (117)    1            2.487 (   1.035) /_   -0.6
DEV_64610        (118)    2           2.3948 (  0.9971) /_ -120.9
DEV_64610        (119)    3           2.4042 (   1.001) /_  117.7

ELEMENT = "Line.DEV_64600_64601"
DEV_64600        (120)    1            2.487 (   1.035) /_   -0.6
DEV_64600        (121)    2           2.3947 (  0.9971) /_ -120.9
DEV_64600        (122)    3           2.4042 (   1.001) /_  117.7
------------
DEV_64601        ( 73)    1            2.487 (   1.035) /_   -0.6
DEV_64601        ( 74)    2           2.3948 (  0.9971) /_ -120.9
DEV_64601        ( 75)    3           2.4042 (   1.001) /_  117.7

ELEMENT = "Line.OH_50004780"
NODE_30123245    (123)    1            2.344 (   0.976) /_  116.9
------------
NODE_272059      (124)    1           2.3438 (  0.9758) /_  116.9

ELEMENT = "Line.OH_50004781"
NODE_30123245    (123)    1            2.344 (   0.976) /_  116.9
------------
DEV_64114        (125)    1           2.3441 (   0.976) /_  116.9

ELEMENT = "Line.OH_50011126"
NODE_30126760    (126)    1           2.4526 (   1.021) /_   -0.9
NODE_30126760    (127)    2            2.342 (  0.9751) /_ -121.3
NODE_30126760    (128)    3           2.3499 (  0.9784) /_  117.0
------------
DEV_64072        (129)    1           2.4523 (   1.021) /_   -0.9
DEV_64072        (130)    2           2.3418 (   0.975) /_ -121.3
DEV_64072        (131)    3           2.3496 (  0.9783) /_  117.0

ELEMENT = "Line.OH_50011128"
DEV_50011123     (132)    1           2.4526 (   1.021) /_   -0.9
------------
NODE_30126760    (126)    1           2.4526 (   1.021) /_   -0.9

ELEMENT = "Line.OH_50011129"
NODE_30126760    (126)    1           2.4526 (   1.021) /_   -0.9
------------
DEV_50011121     (133)    1           2.4526 (   1.021) /_   -0.9

ELEMENT = "Line.OH_50017187"
DEV_63869        (134)    1           2.3637 (  0.9841) /_ -121.2
------------
DEV_50017188     (135)    1           2.3629 (  0.9838) /_ -121.2

ELEMENT = "Line.OH_50026548"
DEV_64122        (136)    1           2.4541 (   1.022) /_   -0.9
------------
DEV_50026552     (137)    1           2.4541 (   1.022) /_   -0.9

ELEMENT = "Line.OH_50026571"
DEV_64122        (138)    1           2.3454 (  0.9765) /_  116.9
------------
DEV_50026573     (139)    1           2.3452 (  0.9764) /_  116.9

ELEMENT = "Line.OH_50026588"
NODE_31158815    (140)    1           2.4539 (   1.022) /_   -1.0
------------
DEV_50026603     (141)    1           2.4539 (   1.022) /_   -1.0

ELEMENT = "Line.OH_50026590"
NODE_31158815    (140)    1           2.4539 (   1.022) /_   -1.0
------------
DEV_50026589     (142)    1           2.4539 (   1.022) /_   -1.0

ELEMENT = "Line.OH_50026852"
DEV_50026553     (143)    1           2.4541 (   1.022) /_   -0.9
------------
DEV_64122        (136)    1           2.4541 (   1.022) /_   -0.9

ELEMENT = "Line.OH_50026853"
DEV_50026576     (144)    1           2.3452 (  0.9764) /_  116.9
------------
DEV_64122        (138)    1           2.3454 (  0.9765) /_  116.9

ELEMENT = "Line.OH_50144"
DEV_50150        (145)    1           2.3112 (  0.9623) /_ -121.8
DEV_50150        (146)    2            2.336 (  0.9726) /_  116.5
------------
DEV_50151        (147)    1           2.3105 (   0.962) /_ -121.8
DEV_50151        (148)    2           2.3358 (  0.9725) /_  116.5

ELEMENT = "Line.OH_50145"
DEV_50151        (147)    1           2.3105 (   0.962) /_ -121.8
DEV_50151        (148)    2           2.3358 (  0.9725) /_  116.5
------------
PRI_50145        (149)    1           2.3105 (   0.962) /_ -121.8
PRI_50145        (150)    2           2.3358 (  0.9725) /_  116.5

ELEMENT = "Line.OH_51042716"
DEV_51042715     (151)    1           2.5008 (   1.041) /_   -0.2
DEV_51042715     (152)    2           2.4723 (   1.029) /_ -120.6
DEV_51042715     (153)    3           2.4883 (   1.036) /_  119.3
------------
NODE_302531      (154)    1           2.4985 (    1.04) /_   -0.2
NODE_302531      (155)    2           2.4679 (   1.028) /_ -120.6
NODE_302531      (156)    3           2.4852 (   1.035) /_  119.3

ELEMENT = "Line.OH_51066692"
DEV_59852        (157)    1           2.4428 (   1.017) /_   -1.2
------------
NODE_31154633    (158)    1           2.4427 (   1.017) /_   -1.2

ELEMENT = "Line.OH_51066693"
NODE_31154633    (158)    1           2.4427 (   1.017) /_   -1.2
------------
DEV_51066697     (159)    1           2.4427 (   1.017) /_   -1.2

ELEMENT = "Line.OH_51066694"
NODE_31154633    (158)    1           2.4427 (   1.017) /_   -1.2
------------
DEV_51066699     (160)    1           2.4427 (   1.017) /_   -1.2

ELEMENT = "Line.OH_51079297"
DEV_51079296     (161)    1           2.3944 (  0.9969) /_  117.5
------------
NODE_229056      (162)    1           2.3942 (  0.9968) /_  117.5

ELEMENT = "Line.OH_51209273"
DEV_65288        (163)    1           2.4828 (   1.034) /_   -0.3
DEV_65288        (164)    2           2.4277 (   1.011) /_ -120.9
DEV_65288        (165)    3           2.4469 (   1.019) /_  118.5
------------
NODE_31205742    (166)    1           2.4823 (   1.034) /_   -0.3
NODE_31205742    (167)    2           2.4278 (   1.011) /_ -120.9
NODE_31205742    (168)    3           2.4468 (   1.019) /_  118.5

ELEMENT = "Line.OH_59846"
NODE_228687      (169)    1           2.4432 (   1.017) /_   -1.2
NODE_228687      (170)    2           2.3235 (  0.9674) /_ -121.6
NODE_228687      (171)    3           2.3354 (  0.9724) /_  116.6
------------
DEV_59852        (157)    1           2.4428 (   1.017) /_   -1.2
DEV_59852        (172)    2           2.3211 (  0.9664) /_ -121.6
DEV_59852        (173)    3            2.335 (  0.9722) /_  116.6

ELEMENT = "Line.OH_59847"
NODE_10002245    (174)    1           2.4435 (   1.017) /_   -1.2
NODE_10002245    (175)    2           2.3252 (  0.9681) /_ -121.6
NODE_10002245    (176)    3           2.3357 (  0.9725) /_  116.6
------------
DEV_59857        (177)    1           2.4434 (   1.017) /_   -1.2
DEV_59857        (178)    2           2.3245 (  0.9678) /_ -121.6
DEV_59857        (179)    3           2.3356 (  0.9725) /_  116.6

ELEMENT = "Line.OH_59848"
DEV_59857        (177)    1           2.4434 (   1.017) /_   -1.2
DEV_59857        (178)    2           2.3245 (  0.9678) /_ -121.6
DEV_59857        (179)    3           2.3356 (  0.9725) /_  116.6
------------
NODE_228687      (169)    1           2.4432 (   1.017) /_   -1.2
NODE_228687      (170)    2           2.3235 (  0.9674) /_ -121.6
NODE_228687      (171)    3           2.3354 (  0.9724) /_  116.6

ELEMENT = "Line.OH_59849"
DEV_59852        (157)    1           2.4428 (   1.017) /_   -1.2
DEV_59852        (172)    2           2.3211 (  0.9664) /_ -121.6
DEV_59852        (173)    3            2.335 (  0.9722) /_  116.6
------------
DEV_59860        (180)    1           2.4428 (   1.017) /_   -1.2
DEV_59860        (181)    2           2.3198 (  0.9659) /_ -121.7
DEV_59860        (182)    3           2.3349 (  0.9721) /_  116.6

ELEMENT = "Line.OH_59850"
NODE_12001288    (183)    1           2.3113 (  0.9623) /_ -121.8
NODE_12001288    (184)    2            2.336 (  0.9726) /_  116.5
------------
DEV_50150        (145)    1           2.3112 (  0.9623) /_ -121.8
DEV_50150        (146)    2            2.336 (  0.9726) /_  116.5

ELEMENT = "Line.OH_59851"
NODE_228693      (185)    1           2.3115 (  0.9624) /_ -121.8
NODE_228693      (186)    2           2.3361 (  0.9726) /_  116.6
------------
NODE_12001288    (183)    1           2.3113 (  0.9623) /_ -121.8
NODE_12001288    (184)    2            2.336 (  0.9726) /_  116.5

ELEMENT = "Line.OH_59853"
NODE_228687      (169)    1           2.4432 (   1.017) /_   -1.2
------------
DEV_59845        (187)    1           2.4431 (   1.017) /_   -1.2

ELEMENT = "Line.OH_59856"
NODE_228687      (169)    1           2.4432 (   1.017) /_   -1.2
------------
DEV_59840        (188)    1           2.4431 (   1.017) /_   -1.2

ELEMENT = "Line.OH_59861"
NODE_228693      (185)    1           2.3115 (  0.9624) /_ -121.8
------------
DEV_50176        (189)    1           2.3114 (  0.9624) /_ -121.8

ELEMENT = "Line.OH_59862"
NODE_228693      (185)    1           2.3115 (  0.9624) /_ -121.8
------------
DEV_50155        (190)    1           2.3114 (  0.9624) /_ -121.8

ELEMENT = "Line.OH_59863"
DEV_59860        (180)    1           2.4428 (   1.017) /_   -1.2
DEV_59860        (181)    2           2.3198 (  0.9659) /_ -121.7
DEV_59860        (182)    3           2.3349 (  0.9721) /_  116.6
------------
NODE_30107673    (191)    1           2.4419 (   1.017) /_   -1.2
NODE_30107673    (192)    2           2.3115 (  0.9624) /_ -121.8
NODE_30107673    (193)    3           2.3361 (  0.9726) /_  116.6

ELEMENT = "Line.OH_59864"
NODE_30107673    (191)    1           2.4419 (   1.017) /_   -1.2
NODE_30107673    (192)    2           2.3115 (  0.9624) /_ -121.8
NODE_30107673    (193)    3           2.3361 (  0.9726) /_  116.6
------------
NODE_228693      (194)    1           2.4419 (   1.017) /_   -1.2
NODE_228693      (185)    2           2.3115 (  0.9624) /_ -121.8
NODE_228693      (186)    3           2.3361 (  0.9726) /_  116.6

ELEMENT = "Line.OH_63209"
NODE_10049044    (195)    1           2.5208 (    1.05) /_    0.0
NODE_10049044    (196)    2           2.5149 (   1.047) /_ -120.0
NODE_10049044    (197)    3           2.5169 (   1.048) /_  119.9
------------
DEV_63225        (198)    1           2.5214 (    1.05) /_    0.0
DEV_63225        (199)    2           2.5162 (   1.048) /_ -120.0
DEV_63225        (200)    3           2.5177 (   1.048) /_  119.9

ELEMENT = "Line.OH_63858"
DEV_63857        (201)    1           2.4652 (   1.026) /_   -0.8
DEV_63857        (202)    2           2.3554 (  0.9807) /_ -121.2
DEV_63857        (203)    3           2.3667 (  0.9854) /_  117.2
------------
DEV_64149        (204)    1           2.4619 (   1.025) /_   -0.8
DEV_64149        (205)    2           2.3512 (  0.9789) /_ -121.2
DEV_64149        (206)    3           2.3606 (  0.9829) /_  117.1

ELEMENT = "Line.OH_63859"
DEV_64149        (204)    1           2.4619 (   1.025) /_   -0.8
DEV_64149        (205)    2           2.3512 (  0.9789) /_ -121.2
DEV_64149        (206)    3           2.3606 (  0.9829) /_  117.1
------------
DEV_64310        (207)    1            2.462 (   1.025) /_   -0.8
DEV_64310        (208)    2           2.3511 (  0.9789) /_ -121.2
DEV_64310        (209)    3           2.3602 (  0.9827) /_  117.1

ELEMENT = "Line.OH_63860"
DEV_64149        (204)    1           2.4619 (   1.025) /_   -0.8
DEV_64149        (205)    2           2.3512 (  0.9789) /_ -121.2
DEV_64149        (206)    3           2.3606 (  0.9829) /_  117.1
------------
DEV_64004        (210)    1           2.4576 (   1.023) /_   -0.9
DEV_64004        (211)    2           2.3466 (   0.977) /_ -121.2
DEV_64004        (212)    3           2.3554 (  0.9807) /_  117.0

ELEMENT = "Line.OH_63876"
DEV_63875        (213)    1           2.3595 (  0.9824) /_  117.1
------------
TIE_272144       (214)    1           2.3595 (  0.9824) /_  117.1

ELEMENT = "Line.OH_63877"
TIE_272144       (214)    1           2.3595 (  0.9824) /_  117.1
------------
DEV_63873        (215)    1           2.3595 (  0.9824) /_  117.1

ELEMENT = "Line.OH_63937"
DEV_63869        (134)    1           2.3637 (  0.9841) /_ -121.2
------------
NODE_10002231    (216)    1            2.364 (  0.9843) /_ -121.2

ELEMENT = "Line.OH_64006"
DEV_64124        (217)    1           2.4541 (   1.022) /_   -0.9
DEV_64124        (218)    2           2.3465 (   0.977) /_  116.9
------------
DEV_64122        (136)    1           2.4541 (   1.022) /_   -0.9
DEV_64122        (138)    2           2.3454 (  0.9765) /_  116.9

ELEMENT = "Line.OH_64007"
NODE_272059      (124)    1           2.3438 (  0.9758) /_  116.9
------------
DEV_64120        (219)    1           2.3437 (  0.9758) /_  116.9

ELEMENT = "Line.OH_64010"
DEV_64121        (220)    1           2.3432 (  0.9756) /_  116.8
------------
DEV_64012        (221)    1           2.3432 (  0.9756) /_  116.8

ELEMENT = "Line.OH_64011"
DEV_64121        (220)    1           2.3432 (  0.9756) /_  116.8
------------
DEV_64013        (222)    1           2.3431 (  0.9756) /_  116.8

ELEMENT = "Line.OH_64042"
NODE_272423      (223)    1           2.4445 (   1.018) /_   -1.3
NODE_272423      (224)    2           2.3333 (  0.9715) /_ -121.5
NODE_272423      (225)    3            2.339 (  0.9739) /_  116.7
------------
NODE_272425      (226)    1           2.4446 (   1.018) /_   -1.3
NODE_272425      (227)    2           2.3349 (  0.9721) /_ -121.5
NODE_272425      (228)    3           2.3402 (  0.9744) /_  116.7

ELEMENT = "Line.OH_64043"
DEV_64157        (229)    1           2.4445 (   1.018) /_   -1.3
------------
NODE_272423      (223)    1           2.4445 (   1.018) /_   -1.3

ELEMENT = "Line.OH_64045"
NODE_272419      (230)    1           2.4443 (   1.018) /_   -1.2
NODE_272419      (231)    2           2.3292 (  0.9698) /_ -121.5
NODE_272419      (232)    3           2.3364 (  0.9728) /_  116.6
------------
DEV_64044        (233)    1           2.4445 (   1.018) /_   -1.3
DEV_64044        (234)    2           2.3311 (  0.9706) /_ -121.5
DEV_64044        (235)    3           2.3374 (  0.9732) /_  116.6

ELEMENT = "Line.OH_64046"
NODE_272419      (232)    1           2.3364 (  0.9728) /_  116.6
------------
DEV_64047        (236)    1           2.3363 (  0.9727) /_  116.6

ELEMENT = "Line.OH_64064"
DEV_64063        (237)    1           2.3363 (  0.9727) /_  116.6
------------
NODE_272419      (232)    1           2.3364 (  0.9728) /_  116.6

ELEMENT = "Line.OH_64066"
NODE_10002245    (174)    1           2.4435 (   1.017) /_   -1.2
NODE_10002245    (175)    2           2.3252 (  0.9681) /_ -121.6
NODE_10002245    (176)    3           2.3357 (  0.9725) /_  116.6
------------
DEV_64065        (238)    1           2.4438 (   1.017) /_   -1.2
DEV_64065        (239)    2           2.3266 (  0.9687) /_ -121.6
DEV_64065        (240)    3           2.3359 (  0.9726) /_  116.6

ELEMENT = "Line.OH_64067"
DEV_64126        (241)    1           2.4542 (   1.022) /_   -0.9
DEV_64126        (242)    2           2.3423 (  0.9752) /_ -121.3
DEV_64126        (243)    3           2.3499 (  0.9784) /_  117.0
------------
DEV_64128        (244)    1           2.4541 (   1.022) /_   -0.9
DEV_64128        (245)    2           2.3416 (   0.975) /_ -121.3
DEV_64128        (246)    3           2.3488 (  0.9779) /_  117.0

ELEMENT = "Line.OH_64068"
DEV_64125        (247)    1           2.4541 (   1.022) /_   -0.9
DEV_64125        (248)    2           2.3476 (  0.9774) /_  116.9
------------
DEV_64124        (217)    1           2.4541 (   1.022) /_   -0.9
DEV_64124        (218)    2           2.3465 (   0.977) /_  116.9

ELEMENT = "Line.OH_64069"
DEV_64128        (244)    1           2.4541 (   1.022) /_   -0.9
DEV_64128        (245)    2           2.3416 (   0.975) /_ -121.3
DEV_64128        (246)    3           2.3488 (  0.9779) /_  117.0
------------
DEV_64125        (247)    1           2.4541 (   1.022) /_   -0.9
DEV_64125        (249)    2           2.3415 (  0.9749) /_ -121.2
DEV_64125        (248)    3           2.3476 (  0.9774) /_  116.9

ELEMENT = "Line.OH_64074"
NODE_31158815    (140)    1           2.4539 (   1.022) /_   -1.0
------------
DEV_63947        (250)    1           2.4536 (   1.022) /_   -1.0

ELEMENT = "Line.OH_64080"
DEV_64081        (251)    1           2.4446 (   1.018) /_   -1.3
DEV_64081        (252)    2           2.3349 (  0.9721) /_ -121.5
DEV_64081        (253)    3           2.3402 (  0.9744) /_  116.7
------------
NODE_272425      (226)    1           2.4446 (   1.018) /_   -1.3
NODE_272425      (227)    2           2.3349 (  0.9721) /_ -121.5
NODE_272425      (228)    3           2.3402 (  0.9744) /_  116.7

ELEMENT = "Line.OH_64099"
NODE_272425      (226)    1           2.4446 (   1.018) /_   -1.3
NODE_272425      (227)    2           2.3349 (  0.9721) /_ -121.5
NODE_272425      (228)    3           2.3402 (  0.9744) /_  116.7
------------
DEV_64098        (254)    1           2.4448 (   1.018) /_   -1.3
DEV_64098        (255)    2           2.3371 (  0.9731) /_ -121.5
DEV_64098        (256)    3            2.342 (  0.9751) /_  116.7

ELEMENT = "Line.OH_64145"
DEV_64310        (207)    1            2.462 (   1.025) /_   -0.8
DEV_64310        (208)    2           2.3511 (  0.9789) /_ -121.2
DEV_64310        (209)    3           2.3602 (  0.9827) /_  117.1
------------
NODE_30051728    (257)    1           2.4622 (   1.025) /_   -0.8
NODE_30051728    (258)    2            2.351 (  0.9789) /_ -121.2
NODE_30051728    (259)    3           2.3599 (  0.9826) /_  117.1

ELEMENT = "Line.OH_64146"
NODE_30051728    (257)    1           2.4622 (   1.025) /_   -0.8
NODE_30051728    (258)    2            2.351 (  0.9789) /_ -121.2
NODE_30051728    (259)    3           2.3599 (  0.9826) /_  117.1
------------
TIE_272144       (260)    1           2.4623 (   1.025) /_   -0.8
TIE_272144       (261)    2           2.3509 (  0.9788) /_ -121.2
TIE_272144       (214)    3           2.3595 (  0.9824) /_  117.1

ELEMENT = "Line.OH_64156"
NODE_272423      (223)    1           2.4445 (   1.018) /_   -1.3
------------
DEV_64184        (262)    1           2.4445 (   1.018) /_   -1.3

ELEMENT = "Line.OH_64167"
DEV_64065        (238)    1           2.4438 (   1.017) /_   -1.2
DEV_64065        (239)    2           2.3266 (  0.9687) /_ -121.6
DEV_64065        (240)    3           2.3359 (  0.9726) /_  116.6
------------
NODE_272419      (230)    1           2.4443 (   1.018) /_   -1.2
NODE_272419      (231)    2           2.3292 (  0.9698) /_ -121.5
NODE_272419      (232)    3           2.3364 (  0.9728) /_  116.6

ELEMENT = "Line.OH_64176"
DEV_64044        (233)    1           2.4445 (   1.018) /_   -1.3
DEV_64044        (234)    2           2.3311 (  0.9706) /_ -121.5
DEV_64044        (235)    3           2.3374 (  0.9732) /_  116.6
------------
NODE_272423      (223)    1           2.4445 (   1.018) /_   -1.3
NODE_272423      (224)    2           2.3333 (  0.9715) /_ -121.5
NODE_272423      (225)    3            2.339 (  0.9739) /_  116.7

ELEMENT = "Line.OH_64235"
NODE_297599      (263)    1           2.4424 (   1.017) /_   -1.3
------------
DEV_64234        (264)    1           2.4424 (   1.017) /_   -1.3

ELEMENT = "Line.OH_64236"
DEV_64237        (265)    1           2.4425 (   1.017) /_   -1.3
------------
NODE_297599      (263)    1           2.4424 (   1.017) /_   -1.3

ELEMENT = "Line.OH_64239"
NODE_297599      (263)    1           2.4424 (   1.017) /_   -1.3
------------
NODE_272429      (266)    1           2.4412 (   1.016) /_   -1.3

ELEMENT = "Line.OH_64240"
DEV_64241        (267)    1           2.4401 (   1.016) /_   -1.3
------------
NODE_272431      (268)    1           2.4401 (   1.016) /_   -1.3

ELEMENT = "Line.OH_64249"
NODE_272431      (268)    1           2.4401 (   1.016) /_   -1.3
------------
DEV_64250        (269)    1           2.4401 (   1.016) /_   -1.3

ELEMENT = "Line.OH_64255"
NODE_272431      (268)    1           2.4401 (   1.016) /_   -1.3
------------
DEV_64271        (270)    1           2.4393 (   1.016) /_   -1.3

ELEMENT = "Line.OH_64256"
DEV_64271        (270)    1           2.4393 (   1.016) /_   -1.3
------------
DEV_64257        (271)    1           2.4392 (   1.016) /_   -1.3

ELEMENT = "Line.OH_64258"
DEV_64257        (271)    1           2.4392 (   1.016) /_   -1.3
------------
DEV_64260        (272)    1           2.4392 (   1.016) /_   -1.3

ELEMENT = "Line.OH_64259"
DEV_64260        (272)    1           2.4392 (   1.016) /_   -1.3
------------
NODE_272459      (273)    1           2.4391 (   1.016) /_   -1.3

ELEMENT = "Line.OH_64261"
NODE_272459      (273)    1           2.4391 (   1.016) /_   -1.3
------------
NODE_272461      (274)    1           2.4389 (   1.015) /_   -1.3

ELEMENT = "Line.OH_64262"
NODE_272461      (274)    1           2.4389 (   1.015) /_   -1.3
------------
DEV_64263        (275)    1           2.4387 (   1.015) /_   -1.3

ELEMENT = "Line.OH_64265"
DEV_64271        (270)    1           2.4393 (   1.016) /_   -1.3
------------
DEV_64270        (276)    1           2.4387 (   1.015) /_   -1.3

ELEMENT = "Line.OH_64266"
DEV_64270        (276)    1           2.4387 (   1.015) /_   -1.3
------------
DEV_51044932     (277)    1           2.4378 (   1.015) /_   -1.3

ELEMENT = "Line.OH_64267"
DEV_51044932     (277)    1           2.4378 (   1.015) /_   -1.3
------------
DEV_64268        (278)    1           2.4377 (   1.015) /_   -1.3

ELEMENT = "Line.OH_64274"
DEV_64268        (278)    1           2.4377 (   1.015) /_   -1.3
------------
DEV_64269        (279)    1           2.4372 (   1.015) /_   -1.3

ELEMENT = "Line.OH_64275"
DEV_64263        (275)    1           2.4387 (   1.015) /_   -1.3
------------
DEV_64264        (280)    1           2.4386 (   1.015) /_   -1.3

ELEMENT = "Line.OH_64283"
NODE_272429      (266)    1           2.4412 (   1.016) /_   -1.3
------------
NODE_272431      (268)    1           2.4401 (   1.016) /_   -1.3

ELEMENT = "Line.OH_64383"
DEV_64389        (281)    1           2.4543 (   1.022) /_   -0.9
DEV_64389        (282)    2            2.343 (  0.9755) /_ -121.3
DEV_64389        (283)    3           2.3511 (  0.9789) /_  117.0
------------
DEV_64126        (241)    1           2.4542 (   1.022) /_   -0.9
DEV_64126        (242)    2           2.3423 (  0.9752) /_ -121.3
DEV_64126        (243)    3           2.3499 (  0.9784) /_  117.0

ELEMENT = "Line.OH_64384"
NODE_30113351    (284)    1           2.4543 (   1.022) /_   -0.9
NODE_30113351    (285)    2           2.3431 (  0.9756) /_ -121.3
NODE_30113351    (286)    3           2.3513 (   0.979) /_  117.0
------------
NODE_30126760    (126)    1           2.4526 (   1.021) /_   -0.9
NODE_30126760    (127)    2            2.342 (  0.9751) /_ -121.3
NODE_30126760    (128)    3           2.3499 (  0.9784) /_  117.0

ELEMENT = "Line.OH_64385"
DEV_64389        (281)    1           2.4543 (   1.022) /_   -0.9
DEV_64389        (282)    2            2.343 (  0.9755) /_ -121.3
DEV_64389        (283)    3           2.3511 (  0.9789) /_  117.0
------------
NODE_30113351    (284)    1           2.4543 (   1.022) /_   -0.9
NODE_30113351    (285)    2           2.3431 (  0.9756) /_ -121.3
NODE_30113351    (286)    3           2.3513 (   0.979) /_  117.0

ELEMENT = "Line.OH_64386"
DEV_64004        (210)    1           2.4576 (   1.023) /_   -0.9
DEV_64004        (211)    2           2.3466 (   0.977) /_ -121.2
DEV_64004        (212)    3           2.3554 (  0.9807) /_  117.0
------------
NODE_30113351    (284)    1           2.4543 (   1.022) /_   -0.9
NODE_30113351    (285)    2           2.3431 (  0.9756) /_ -121.3
NODE_30113351    (286)    3           2.3513 (   0.979) /_  117.0

ELEMENT = "Line.OH_64387"
NODE_272059      (124)    1           2.3438 (  0.9758) /_  116.9
------------
DEV_64121        (220)    1           2.3432 (  0.9756) /_  116.8

ELEMENT = "Line.OH_64388"
DEV_64109        (287)    1           2.3441 (   0.976) /_  116.9
------------
NODE_30123245    (123)    1            2.344 (   0.976) /_  116.9

ELEMENT = "Line.OH_64485"
DEV_64490        (288)    1           2.4692 (   1.028) /_   -0.8
DEV_64490        (289)    2           2.3605 (  0.9828) /_ -121.1
DEV_64490        (290)    3           2.3741 (  0.9885) /_  117.3
------------
NODE_228982      (291)    1            2.477 (   1.031) /_   -0.7
NODE_228982      (292)    2           2.3707 (   0.987) /_ -121.1
NODE_228982      (293)    3           2.3887 (  0.9946) /_  117.4

ELEMENT = "Line.OH_64486"
NODE_228982      (291)    1            2.477 (   1.031) /_   -0.7
NODE_228982      (292)    2           2.3707 (   0.987) /_ -121.1
NODE_228982      (293)    3           2.3887 (  0.9946) /_  117.4
------------
DEV_64492        (294)    1           2.4823 (   1.034) /_   -0.7
DEV_64492        (295)    2           2.3818 (  0.9917) /_ -121.0
DEV_64492        (296)    3           2.3951 (  0.9972) /_  117.5

ELEMENT = "Line.OH_64487"
DEV_64492        (294)    1           2.4823 (   1.034) /_   -0.7
DEV_64492        (295)    2           2.3818 (  0.9917) /_ -121.0
DEV_64492        (296)    3           2.3951 (  0.9972) /_  117.5
------------
DEV_64587        (297)    1           2.4868 (   1.035) /_   -0.6
DEV_64587        (298)    2           2.3906 (  0.9953) /_ -120.9
DEV_64587        (299)    3           2.4003 (  0.9994) /_  117.6

ELEMENT = "Line.OH_64493"
NODE_228982      (291)    1            2.477 (   1.031) /_   -0.7
NODE_228982      (292)    2           2.3707 (   0.987) /_ -121.1
NODE_228982      (293)    3           2.3887 (  0.9946) /_  117.4
------------
DEV_64568        (300)    1            2.477 (   1.031) /_   -0.7
DEV_64568        (301)    2           2.3705 (   0.987) /_ -121.1
DEV_64568        (302)    3           2.3887 (  0.9946) /_  117.4

ELEMENT = "Line.OH_64494"
DEV_64568        (300)    1            2.477 (   1.031) /_   -0.7
DEV_64568        (301)    2           2.3705 (   0.987) /_ -121.1
DEV_64568        (302)    3           2.3887 (  0.9946) /_  117.4
------------
DEV_64489        (303)    1           2.4768 (   1.031) /_   -0.7
DEV_64489        (304)    2           2.3699 (  0.9867) /_ -121.1
DEV_64489        (305)    3            2.389 (  0.9947) /_  117.4

ELEMENT = "Line.OH_64495"
DEV_64597        (306)    1           2.3976 (  0.9983) /_  117.5
------------
DEV_64573        (307)    1           2.3963 (  0.9977) /_  117.5

ELEMENT = "Line.OH_64496"
DEV_64573        (307)    1           2.3963 (  0.9977) /_  117.5
------------
DEV_64572        (308)    1           2.3946 (   0.997) /_  117.5

ELEMENT = "Line.OH_64497"
DEV_64572        (308)    1           2.3946 (   0.997) /_  117.5
------------
NODE_229035      (309)    1           2.3946 (   0.997) /_  117.5

ELEMENT = "Line.OH_64498"
NODE_229035      (309)    1           2.3946 (   0.997) /_  117.5
------------
DEV_64571        (310)    1           2.3944 (  0.9969) /_  117.5

ELEMENT = "Line.OH_64532"
DEV_64490        (288)    1           2.4692 (   1.028) /_   -0.8
DEV_64490        (289)    2           2.3605 (  0.9828) /_ -121.1
DEV_64490        (290)    3           2.3741 (  0.9885) /_  117.3
------------
DEV_63857        (201)    1           2.4652 (   1.026) /_   -0.8
DEV_63857        (202)    2           2.3554 (  0.9807) /_ -121.2
DEV_63857        (203)    3           2.3667 (  0.9854) /_  117.2

ELEMENT = "Line.OH_64534"
DEV_64587        (297)    1           2.4868 (   1.035) /_   -0.6
DEV_64587        (298)    2           2.3906 (  0.9953) /_ -120.9
DEV_64587        (299)    3           2.4003 (  0.9994) /_  117.6
------------
DEV_64549        (311)    1           2.4873 (   1.036) /_   -0.6
DEV_64549        (312)    2           2.3904 (  0.9953) /_ -120.9
DEV_64549        (313)    3           2.3992 (  0.9989) /_  117.6

ELEMENT = "Line.OH_64535"
DEV_64549        (313)    1           2.3992 (  0.9989) /_  117.6
------------
DEV_64597        (306)    1           2.3976 (  0.9983) /_  117.5

ELEMENT = "Line.OH_64563"
DEV_64488        (314)    1           2.3643 (  0.9844) /_ -121.2
------------
NODE_10002231    (216)    1            2.364 (  0.9843) /_ -121.2

ELEMENT = "Line.OH_64564"
DEV_64612        (315)    1            2.366 (  0.9851) /_ -121.2
------------
DEV_64488        (314)    1           2.3643 (  0.9844) /_ -121.2

ELEMENT = "Line.OH_64570"
NODE_229035      (309)    1           2.3946 (   0.997) /_  117.5
------------
DEV_51079296     (161)    1           2.3944 (  0.9969) /_  117.5

ELEMENT = "Line.OH_64580"
NODE_229056      (162)    1           2.3942 (  0.9968) /_  117.5
------------
DEV_64574        (316)    1           2.3942 (  0.9968) /_  117.5

ELEMENT = "Line.OH_64582"
NODE_229056      (162)    1           2.3942 (  0.9968) /_  117.5
------------
DEV_64581        (317)    1           2.3942 (  0.9968) /_  117.5

ELEMENT = "Line.OH_64586"
DEV_64587        (297)    1           2.4868 (   1.035) /_   -0.6
DEV_64587        (298)    2           2.3906 (  0.9953) /_ -120.9
DEV_64587        (299)    3           2.4003 (  0.9994) /_  117.6
------------
DEV_64589        (318)    1           2.4871 (   1.036) /_   -0.6
DEV_64589        (319)    2           2.3914 (  0.9957) /_ -120.9
DEV_64589        (320)    3           2.4009 (  0.9996) /_  117.6

ELEMENT = "Line.OH_64615"
DEV_64489        (304)    1           2.3699 (  0.9867) /_ -121.1
------------
DEV_64612        (315)    1            2.366 (  0.9851) /_ -121.2

ELEMENT = "Line.OH_64616"
DEV_64628        (321)    1           2.3659 (   0.985) /_ -121.2
------------
DEV_64612        (315)    1            2.366 (  0.9851) /_ -121.2

ELEMENT = "Line.OH_64621"
DEV_64612        (315)    1            2.366 (  0.9851) /_ -121.2
------------
DEV_64624        (322)    1           2.3659 (  0.9851) /_ -121.2

ELEMENT = "Line.OH_64832"
DEV_65519        (323)    1           2.5047 (   1.043) /_   -0.2
DEV_65519        (324)    2           2.4804 (   1.033) /_ -120.5
DEV_65519        (325)    3           2.4935 (   1.038) /_  119.4
------------
DEV_51042715     (151)    1           2.5008 (   1.041) /_   -0.2
DEV_51042715     (152)    2           2.4723 (   1.029) /_ -120.6
DEV_51042715     (153)    3           2.4883 (   1.036) /_  119.3

ELEMENT = "Line.OH_64840"
DEV_65048        (326)    1           2.4935 (   1.038) /_  119.4
------------
DEV_65519        (325)    1           2.4935 (   1.038) /_  119.4

ELEMENT = "Line.OH_64841"
DEV_65519        (325)    1           2.4935 (   1.038) /_  119.4
------------
DEV_65049        (327)    1           2.4935 (   1.038) /_  119.4

ELEMENT = "Line.OH_64870"
DEV_64867        (328)    1           2.4852 (   1.035) /_  119.3
------------
NODE_302531      (156)    1           2.4852 (   1.035) /_  119.3

ELEMENT = "Line.OH_64871"
NODE_302531      (155)    1           2.4679 (   1.028) /_ -120.6
------------
DEV_64868        (329)    1           2.4676 (   1.027) /_ -120.6

ELEMENT = "Line.OH_64872"
DEV_64869        (330)    1           2.4983 (    1.04) /_   -0.2
------------
NODE_302531      (154)    1           2.4985 (    1.04) /_   -0.2

ELEMENT = "Line.OH_64873"
NODE_302531      (154)    1           2.4985 (    1.04) /_   -0.2
NODE_302531      (155)    2           2.4679 (   1.028) /_ -120.6
NODE_302531      (156)    3           2.4852 (   1.035) /_  119.3
------------
DEV_65322        (331)    1           2.4948 (   1.039) /_   -0.2
DEV_65322        (332)    2           2.4582 (   1.023) /_ -120.7
DEV_65322        (333)    3           2.4763 (   1.031) /_  119.1

ELEMENT = "Line.OH_64877"
DEV_65322        (331)    1           2.4948 (   1.039) /_   -0.2
DEV_65322        (332)    2           2.4582 (   1.023) /_ -120.7
DEV_65322        (333)    3           2.4763 (   1.031) /_  119.1
------------
NODE_303482      (334)    1            2.491 (   1.037) /_   -0.3
NODE_303482      (335)    2           2.4483 (   1.019) /_ -120.8
NODE_303482      (336)    3           2.4668 (   1.027) /_  118.9

ELEMENT = "Line.OH_64878"
DEV_51288345     (337)    1           2.4859 (   1.035) /_   -0.3
DEV_51288345     (338)    2           2.4351 (   1.014) /_ -120.9
DEV_51288345     (339)    3           2.4541 (   1.022) /_  118.7
------------
NODE_302552      (340)    1           2.4829 (   1.034) /_   -0.3
NODE_302552      (341)    2           2.4276 (   1.011) /_ -120.9
NODE_302552      (342)    3           2.4469 (   1.019) /_  118.5

ELEMENT = "Line.OH_64879"
NODE_302552      (340)    1           2.4829 (   1.034) /_   -0.3
NODE_302552      (341)    2           2.4276 (   1.011) /_ -120.9
NODE_302552      (342)    3           2.4469 (   1.019) /_  118.5
------------
NODE_302614      (343)    1           2.4789 (   1.032) /_   -0.4
NODE_302614      (344)    2           2.4154 (   1.006) /_ -121.0
NODE_302614      (345)    3           2.4356 (   1.014) /_  118.3

ELEMENT = "Line.OH_64880"
NODE_302552      (340)    1           2.4829 (   1.034) /_   -0.3
NODE_302552      (341)    2           2.4276 (   1.011) /_ -120.9
NODE_302552      (342)    3           2.4469 (   1.019) /_  118.5
------------
DEV_64881        (346)    1           2.4829 (   1.034) /_   -0.3
DEV_64881        (347)    2           2.4276 (   1.011) /_ -120.9
DEV_64881        (348)    3           2.4469 (   1.019) /_  118.5

ELEMENT = "Line.OH_64882"
DEV_64881        (346)    1           2.4829 (   1.034) /_   -0.3
DEV_64881        (347)    2           2.4276 (   1.011) /_ -120.9
DEV_64881        (348)    3           2.4469 (   1.019) /_  118.5
------------
DEV_65288        (163)    1           2.4828 (   1.034) /_   -0.3
DEV_65288        (164)    2           2.4277 (   1.011) /_ -120.9
DEV_65288        (165)    3           2.4469 (   1.019) /_  118.5

ELEMENT = "Line.OH_64894"
DEV_65236        (349)    1           2.4788 (   1.032) /_   -0.4
DEV_65236        (350)    2           2.4151 (   1.006) /_ -121.0
DEV_65236        (351)    3           2.4353 (   1.014) /_  118.3
------------
NODE_302614      (343)    1           2.4789 (   1.032) /_   -0.4
NODE_302614      (344)    2           2.4154 (   1.006) /_ -121.0
NODE_302614      (345)    3           2.4356 (   1.014) /_  118.3

ELEMENT = "Line.OH_64895"
NODE_302614      (345)    1           2.4356 (   1.014) /_  118.3
------------
DEV_64893        (352)    1           2.4355 (   1.014) /_  118.3

ELEMENT = "Line.OH_64896"
NODE_302614      (343)    1           2.4789 (   1.032) /_   -0.4
NODE_302614      (344)    2           2.4154 (   1.006) /_ -121.0
NODE_302614      (345)    3           2.4356 (   1.014) /_  118.3
------------
DEV_64909        (353)    1           2.4789 (   1.032) /_   -0.4
DEV_64909        (354)    2           2.4154 (   1.006) /_ -121.0
DEV_64909        (355)    3           2.4356 (   1.014) /_  118.3

ELEMENT = "Line.OH_65024"
NODE_31206673    (356)    1           2.5074 (   1.044) /_   -0.1
NODE_31206673    (357)    2           2.4862 (   1.035) /_ -120.4
NODE_31206673    (358)    3           2.4975 (    1.04) /_  119.5
------------
DEV_65519        (323)    1           2.5047 (   1.043) /_   -0.2
DEV_65519        (324)    2           2.4804 (   1.033) /_ -120.5
DEV_65519        (325)    3           2.4935 (   1.038) /_  119.4

ELEMENT = "Line.OH_65279"
NODE_303482      (334)    1            2.491 (   1.037) /_   -0.3
NODE_303482      (335)    2           2.4483 (   1.019) /_ -120.8
NODE_303482      (336)    3           2.4668 (   1.027) /_  118.9
------------
DEV_51288345     (337)    1           2.4859 (   1.035) /_   -0.3
DEV_51288345     (338)    2           2.4351 (   1.014) /_ -120.9
DEV_51288345     (339)    3           2.4541 (   1.022) /_  118.7

ELEMENT = "Line.OH_65515"
NODE_31206673    (356)    1           2.5074 (   1.044) /_   -0.1
NODE_31206673    (357)    2           2.4862 (   1.035) /_ -120.4
NODE_31206673    (358)    3           2.4975 (    1.04) /_  119.5
------------
DEV_65517        (359)    1           2.5181 (   1.048) /_    0.0
DEV_65517        (360)    2           2.5091 (   1.045) /_ -120.1
DEV_65517        (361)    3            2.513 (   1.046) /_  119.8

ELEMENT = "Line.OH_65710"
DEV_65517        (359)    1           2.5181 (   1.048) /_    0.0
DEV_65517        (360)    2           2.5091 (   1.045) /_ -120.1
DEV_65517        (361)    3            2.513 (   1.046) /_  119.8
------------
NODE_10049044    (195)    1           2.5208 (    1.05) /_    0.0
NODE_10049044    (196)    2           2.5149 (   1.047) /_ -120.0
NODE_10049044    (197)    3           2.5169 (   1.048) /_  119.9

ELEMENT = "Line.TIE_64470"
TIE_228948       (362)    1           2.4069 (   1.002) /_  117.8
------------
TIE_228950       (363)    1           2.4069 (   1.002) /_  117.8

ELEMENT = "Line.TIE_65119"
TIE_244804       (364)    1            2.401 (  0.9997) /_ -121.0
------------
TIE_244808       (365)    1            2.401 (  0.9997) /_ -121.0

ELEMENT = "Line.UG_50011124"
DEV_50011123     (132)    1           2.4526 (   1.021) /_   -0.9
------------
DEV_50011138     (366)    1           2.4525 (   1.021) /_   -0.9

ELEMENT = "Line.UG_50011136"
DEV_50011121     (133)    1           2.4526 (   1.021) /_   -0.9
------------
DEV_50011141     (367)    1           2.4525 (   1.021) /_   -0.9

ELEMENT = "Line.UG_50011139"
DEV_50011138     (366)    1           2.4525 (   1.021) /_   -0.9
------------
DEV_50011135     (  5)    1           2.4525 (   1.021) /_   -0.9

ELEMENT = "Line.UG_50011140"
DEV_50011141     (367)    1           2.4525 (   1.021) /_   -0.9
------------
DEV_50011134     (  4)    1           2.4525 (   1.021) /_   -0.9

ELEMENT = "Line.UG_50026554"
DEV_50026552     (137)    1           2.4541 (   1.022) /_   -0.9
------------
NODE_30134821    (368)    1            2.454 (   1.022) /_   -0.9

ELEMENT = "Line.UG_50026555"
NODE_31158821    (369)    1            2.454 (   1.022) /_   -0.9
------------
DEV_50026553     (143)    1           2.4541 (   1.022) /_   -0.9

ELEMENT = "Line.UG_50026565"
DEV_50026562     (  9)    1            2.454 (   1.022) /_   -0.9
------------
NODE_30134821    (368)    1            2.454 (   1.022) /_   -0.9

ELEMENT = "Line.UG_50026566"
NODE_31158821    (369)    1            2.454 (   1.022) /_   -0.9
------------
DEV_50026609     (370)    1            2.454 (   1.022) /_   -0.9

ELEMENT = "Line.UG_50026567"
DEV_50026561     (  8)    1            2.454 (   1.022) /_   -0.9
------------
NODE_31158821    (369)    1            2.454 (   1.022) /_   -0.9

ELEMENT = "Line.UG_50026574"
DEV_50026580     ( 11)    1           2.3447 (  0.9762) /_  116.9
------------
NODE_30134832    (371)    1           2.3448 (  0.9763) /_  116.9

ELEMENT = "Line.UG_50026575"
DEV_50026579     ( 10)    1           2.3447 (  0.9762) /_  116.9
------------
NODE_30134833    (372)    1           2.3447 (  0.9762) /_  116.9

ELEMENT = "Line.UG_50026591"
DEV_50026626     (373)    1           2.3445 (  0.9761) /_  116.9
------------
NODE_31147210    (374)    1           2.3441 (   0.976) /_  116.9

ELEMENT = "Line.UG_50026596"
NODE_31147209    (375)    1           2.3441 (   0.976) /_  116.9
------------
DEV_50026621     (376)    1           2.3445 (  0.9761) /_  116.9

ELEMENT = "Line.UG_50026608"
DEV_50026606     (377)    1            2.454 (   1.022) /_   -0.9
------------
DEV_50026589     (142)    1           2.4539 (   1.022) /_   -1.0

ELEMENT = "Line.UG_50026610"
DEV_50026609     (370)    1            2.454 (   1.022) /_   -0.9
------------
DEV_50026603     (141)    1           2.4539 (   1.022) /_   -1.0

ELEMENT = "Line.UG_50026622"
DEV_50026621     (376)    1           2.3445 (  0.9761) /_  116.9
------------
NODE_30134833    (372)    1           2.3447 (  0.9762) /_  116.9

ELEMENT = "Line.UG_50026627"
NODE_30134832    (371)    1           2.3448 (  0.9763) /_  116.9
------------
DEV_50026626     (373)    1           2.3445 (  0.9761) /_  116.9

ELEMENT = "Line.UG_50026628"
NODE_30134821    (368)    1            2.454 (   1.022) /_   -0.9
------------
DEV_50026606     (377)    1            2.454 (   1.022) /_   -0.9

ELEMENT = "Line.UG_50026631"
NODE_30134832    (371)    1           2.3448 (  0.9763) /_  116.9
------------
DEV_50026573     (139)    1           2.3452 (  0.9764) /_  116.9

ELEMENT = "Line.UG_50026632"
NODE_30134833    (372)    1           2.3447 (  0.9762) /_  116.9
------------
DEV_50026576     (144)    1           2.3452 (  0.9764) /_  116.9

ELEMENT = "Line.UG_50028195"
NODE_30135727    (378)    1           2.4799 (   1.033) /_   -0.4
------------
DEV_65046        (379)    1           2.4797 (   1.032) /_   -0.4

ELEMENT = "Line.UG_50146"
DEV_50172        ( 12)    1           2.3101 (  0.9618) /_ -121.8
------------
NODE_30106597    (380)    1           2.3101 (  0.9618) /_ -121.8

ELEMENT = "Line.UG_50153"
NODE_30106617    (381)    1           2.3103 (  0.9619) /_ -121.8
------------
NODE_30106590    (382)    1           2.3107 (  0.9621) /_ -121.8

ELEMENT = "Line.UG_50154"
DEV_50176        (189)    1           2.3114 (  0.9624) /_ -121.8
------------
NODE_30107671    (383)    1           2.3114 (  0.9624) /_ -121.8

ELEMENT = "Line.UG_50156"
DEV_50155        (190)    1           2.3114 (  0.9624) /_ -121.8
------------
NODE_30107677    (384)    1           2.3114 (  0.9624) /_ -121.8

ELEMENT = "Line.UG_50159"
NODE_30113328    (385)    1             2.31 (  0.9618) /_ -121.8
------------
NODE_30106617    (381)    1           2.3103 (  0.9619) /_ -121.8

ELEMENT = "Line.UG_50160"
DEV_50157        (386)    1           2.3099 (  0.9618) /_ -121.8
------------
NODE_30113328    (385)    1             2.31 (  0.9618) /_ -121.8

ELEMENT = "Line.UG_50161"
NODE_30113329    (387)    1           2.3099 (  0.9617) /_ -121.8
------------
NODE_30106597    (380)    1           2.3101 (  0.9618) /_ -121.8

ELEMENT = "Line.UG_50162"
DEV_50158        (388)    1           2.3098 (  0.9617) /_ -121.8
------------
NODE_30113329    (387)    1           2.3099 (  0.9617) /_ -121.8

ELEMENT = "Line.UG_50164"
DEV_50165        ( 15)    1           2.3095 (  0.9616) /_ -121.8
------------
DEV_50158        (388)    1           2.3098 (  0.9617) /_ -121.8

ELEMENT = "Line.UG_50170"
DEV_50166        ( 14)    1           2.3095 (  0.9616) /_ -121.8
------------
DEV_50157        (386)    1           2.3099 (  0.9618) /_ -121.8

ELEMENT = "Line.UG_50173"
DEV_50171        ( 13)    1           2.3101 (  0.9618) /_ -121.8
------------
NODE_30106616    (389)    1           2.3102 (  0.9619) /_ -121.8

ELEMENT = "Line.UG_50174"
NODE_30106590    (382)    1           2.3107 (  0.9621) /_ -121.8
------------
NODE_30107671    (383)    1           2.3114 (  0.9624) /_ -121.8

ELEMENT = "Line.UG_50175"
NODE_30106616    (389)    1           2.3102 (  0.9619) /_ -121.8
------------
NODE_30107677    (384)    1           2.3114 (  0.9624) /_ -121.8

ELEMENT = "Line.UG_50207"
DEV_50213        ( 17)    1           2.4429 (   1.017) /_   -1.2
------------
NODE_10002241    (390)    1           2.4429 (   1.017) /_   -1.2

ELEMENT = "Line.UG_50208"
DEV_50210        ( 16)    1           2.4429 (   1.017) /_   -1.2
------------
NODE_10002242    (391)    1           2.4429 (   1.017) /_   -1.2

ELEMENT = "Line.UG_50209"
NODE_10002242    (391)    1           2.4429 (   1.017) /_   -1.2
------------
NODE_10002243    (392)    1            2.443 (   1.017) /_   -1.2

ELEMENT = "Line.UG_50259"
DEV_50261        ( 19)    1           2.3424 (  0.9753) /_  116.8
------------
NODE_30117678    (393)    1           2.3429 (  0.9755) /_  116.8

ELEMENT = "Line.UG_50260"
DEV_50262        ( 18)    1           2.3424 (  0.9753) /_  116.8
------------
DEV_50264        ( 21)    1           2.3424 (  0.9753) /_  116.8

ELEMENT = "Line.UG_50271"
DEV_50265        ( 20)    1           2.3424 (  0.9753) /_  116.8
------------
NODE_30122102    (394)    1            2.343 (  0.9755) /_  116.8

ELEMENT = "Line.UG_51045204"
NODE_31143048    (395)    1           2.3578 (  0.9817) /_  117.0
------------
DEV_63403        ( 36)    1           2.3578 (  0.9817) /_  117.0

ELEMENT = "Line.UG_51066673"
NODE_31154622    (396)    1           2.4185 (   1.007) /_ -120.8
------------
DEV_51066671     ( 25)    1           2.4183 (   1.007) /_ -120.8

ELEMENT = "Line.UG_51066674"
NODE_31154622    (396)    1           2.4185 (   1.007) /_ -120.8
------------
DEV_51266982     ( 80)    1            2.424 (   1.009) /_ -120.8

ELEMENT = "Line.UG_51066675"
NODE_31154623    (397)    1           2.4182 (   1.007) /_ -120.8
------------
DEV_51066670     ( 24)    1           2.4183 (   1.007) /_ -120.8

ELEMENT = "Line.UG_51066704"
DEV_51066699     (160)    1           2.4427 (   1.017) /_   -1.2
------------
DEV_51066785     (398)    1           2.4427 (   1.017) /_   -1.2

ELEMENT = "Line.UG_51066705"
DEV_51066697     (159)    1           2.4427 (   1.017) /_   -1.2
------------
DEV_51066787     (399)    1           2.4426 (   1.017) /_   -1.2

ELEMENT = "Line.UG_51066786"
DEV_51066785     (398)    1           2.4427 (   1.017) /_   -1.2
------------
DEV_51066703     ( 27)    1           2.4426 (   1.017) /_   -1.2

ELEMENT = "Line.UG_51066788"
DEV_51066787     (399)    1           2.4426 (   1.017) /_   -1.2
------------
DEV_51066702     ( 26)    1           2.4426 (   1.017) /_   -1.2

ELEMENT = "Line.UG_51071432"
DEV_51071431     ( 29)    1           2.3653 (  0.9848) /_ -121.2
------------
DEV_64627        (400)    1           2.3655 (  0.9849) /_ -121.2

ELEMENT = "Line.UG_51071433"
DEV_64627        (400)    1           2.3655 (  0.9849) /_ -121.2
------------
DEV_64628        (321)    1           2.3659 (   0.985) /_ -121.2

ELEMENT = "Line.UG_51091903"
NODE_31171046    (401)    1           2.4159 (   1.006) /_ -120.9
------------
NODE_30105657    (402)    1           2.4166 (   1.006) /_ -120.9

ELEMENT = "Line.UG_51091909"
DEV_51091906     ( 30)    1           2.4155 (   1.006) /_ -120.9
------------
NODE_31171046    (401)    1           2.4159 (   1.006) /_ -120.9

ELEMENT = "Line.UG_51091911"
NODE_31171047    (403)    1            2.415 (   1.006) /_ -120.9
------------
DEV_51091907     ( 31)    1           2.4155 (   1.006) /_ -120.9

ELEMENT = "Line.UG_51118252"
NODE_31186548    (404)    1            2.483 (   1.034) /_   -0.3
------------
DEV_64825        (405)    1            2.487 (   1.035) /_   -0.3

ELEMENT = "Line.UG_51121397"
NODE_31188258    (406)    1           2.4443 (   1.018) /_   -1.3
------------
DEV_64157        (229)    1           2.4445 (   1.018) /_   -1.3

ELEMENT = "Line.UG_51121408"
NODE_31188258    (406)    1           2.4443 (   1.018) /_   -1.3
------------
DEV_51121406     ( 32)    1           2.4443 (   1.018) /_   -1.3

ELEMENT = "Line.UG_51121409"
NODE_31188259    (407)    1           2.4442 (   1.018) /_   -1.3
------------
DEV_51121407     ( 33)    1           2.4443 (   1.018) /_   -1.3

ELEMENT = "Line.UG_51193307"
NODE_31196478    (408)    1            2.359 (  0.9822) /_  117.1
------------
DEV_63873        (215)    1           2.3595 (  0.9824) /_  117.1

ELEMENT = "Line.UG_51215063"
NODE_31200057    (409)    1           2.4433 (   1.017) /_   -1.3
------------
DEV_64224        ( 58)    1           2.4426 (   1.017) /_   -1.3

ELEMENT = "Line.UG_51259023"
NODE_272298      (410)    1           2.3392 (   0.974) /_ -121.4
------------
DEV_51259011     (411)    1           2.3392 (   0.974) /_ -121.4

ELEMENT = "Line.UG_59854"
DEV_59845        (187)    1           2.4431 (   1.017) /_   -1.2
------------
NODE_10002243    (392)    1            2.443 (   1.017) /_   -1.2

ELEMENT = "Line.UG_59855"
DEV_59840        (188)    1           2.4431 (   1.017) /_   -1.2
------------
NODE_10002244    (412)    1           2.4431 (   1.017) /_   -1.2

ELEMENT = "Line.SECTION_0001"
SOURCEBUS        (  1)    1           2.5217 (    1.05) /_    0.0
SOURCEBUS        (  2)    2           2.5216 (    1.05) /_ -120.0
SOURCEBUS        (  3)    3           2.5216 (    1.05) /_  120.0
------------
NODE_5113412250  (413)    1           2.5217 (    1.05) /_    0.0
NODE_5113412250  (414)    2           2.5215 (    1.05) /_ -120.0
NODE_5113412250  (415)    3           2.5216 (    1.05) /_  120.0

ELEMENT = "Line.SECTION_0002"
NODE_5113412250  (413)    1           2.5217 (    1.05) /_    0.0
NODE_5113412250  (414)    2           2.5215 (    1.05) /_ -120.0
NODE_5113412250  (415)    3           2.5216 (    1.05) /_  120.0
------------
BLACK_PT         (416)    1           2.5217 (    1.05) /_    0.0
BLACK_PT         (417)    2           2.5216 (    1.05) /_ -120.0
BLACK_PT         (418)    3           2.5216 (    1.05) /_  120.0

ELEMENT = "Line.SECTION_0003"
NODE_5113412250  (413)    1           2.5217 (    1.05) /_    0.0
NODE_5113412250  (414)    2           2.5215 (    1.05) /_ -120.0
NODE_5113412250  (415)    3           2.5216 (    1.05) /_  120.0
------------
HUNAKAI          (419)    1           2.5217 (    1.05) /_    0.0
HUNAKAI          (420)    2           2.5215 (    1.05) /_ -120.0
HUNAKAI          (421)    3           2.5216 (    1.05) /_  120.0

ELEMENT = "Line.SECTION_0004"
NODE_5113412250  (413)    1           2.5217 (    1.05) /_    0.0
NODE_5113412250  (414)    2           2.5215 (    1.05) /_ -120.0
NODE_5113412250  (415)    3           2.5216 (    1.05) /_  120.0
------------
KAHALA           (422)    1           2.5216 (    1.05) /_    0.0
KAHALA           (423)    2           2.5215 (    1.05) /_ -120.0
KAHALA           (424)    3           2.5216 (    1.05) /_  120.0

ELEMENT = "Line.UG_63213"
KAHALA           (422)    1           2.5216 (    1.05) /_    0.0
KAHALA           (423)    2           2.5215 (    1.05) /_ -120.0
KAHALA           (424)    3           2.5216 (    1.05) /_  120.0
------------
DEV_63225        (198)    1           2.5214 (    1.05) /_    0.0
DEV_63225        (199)    2           2.5162 (   1.048) /_ -120.0
DEV_63225        (200)    3           2.5177 (   1.048) /_  119.9

ELEMENT = "Line.UG_63404"
DEV_63402        ( 37)    1           2.3578 (  0.9817) /_  117.0
------------
NODE_274712      (425)    1           2.3578 (  0.9817) /_  117.0

ELEMENT = "Line.UG_63405"
NODE_274712      (425)    1           2.3578 (  0.9817) /_  117.0
------------
DEV_63399        ( 35)    1           2.3575 (  0.9816) /_  117.0

ELEMENT = "Line.UG_63406"
DEV_63398        ( 34)    1           2.3575 (  0.9816) /_  117.0
------------
NODE_31143048    (395)    1           2.3578 (  0.9817) /_  117.0

ELEMENT = "Line.UG_63424"
...